<?xml version="1.0" encoding="UTF-8"?>

<!-- generated on 2024-02-17 11:59:20.747651 by osmWebWizard.py UNKNOWN
<configuration>
    <net-file value="/opt/homebrew/Cellar/sumo/1.19.0/share/sumo/tools/2024-02-17-11-59-15/osm.net.xml.gz"/>
    <output-trip-file value="/opt/homebrew/Cellar/sumo/1.19.0/share/sumo/tools/2024-02-17-11-59-15/osm.passenger.trips.xml"/>
    <route-file value="/opt/homebrew/Cellar/sumo/1.19.0/share/sumo/tools/2024-02-17-11-59-15/osm.passenger.rou.xml"/>
    <prefix value="veh"/>
    <trip-attributes value="departLane=&quot;best&quot;"/>
    <fringe-start-attributes value="departSpeed=&quot;max&quot;"/>
    <vehicle-class value="passenger"/>
    <lanes value="True"/>
    <fringe-factor value="5"/>
    <allow-fringe.min-length value="1000.0"/>
    <via-edge-types value="highway.motorway,highway.motorway_link,highway.trunk_link,highway.primary_link,highway.secondary_link,highway.tertiary_link"/>
    <min-distance value="300.0"/>
    <min-distance.fringe value="10.0"/>
    <remove-loops value="True"/>
    <validate value="True"/>
    <insertion-density value="12.0"/>
</configuration>
-->

<!-- generated on 2024-02-17 11:59:20 by Eclipse SUMO duarouter Version 1.19.0
<configuration xmlns:xsi="http://www.w3.org/2001/XMLSchema-instance" xsi:noNamespaceSchemaLocation="http://sumo.dlr.de/xsd/duarouterConfiguration.xsd">

    <input>
        <net-file value="/opt/homebrew/Cellar/sumo/1.19.0/share/sumo/tools/2024-02-17-11-59-15/osm.net.xml.gz"/>
        <route-files value="/opt/homebrew/Cellar/sumo/1.19.0/share/sumo/tools/2024-02-17-11-59-15/osm.passenger.trips.xml"/>
    </input>

    <output>
        <output-file value="/opt/homebrew/Cellar/sumo/1.19.0/share/sumo/tools/2024-02-17-11-59-15/osm.passenger.trips.xml.tmp"/>
        <alternatives-output value="NUL"/>
        <write-trips value="true"/>
    </output>

    <processing>
        <remove-loops value="true"/>
    </processing>

    <time>
        <begin value="0.0"/>
        <end value="3600.0"/>
    </time>

    <report>
        <no-warnings value="true"/>
        <ignore-errors value="true"/>
        <no-step-log value="true"/>
    </report>

</configuration>
-->

<routes xmlns:xsi="http://www.w3.org/2001/XMLSchema-instance" xsi:noNamespaceSchemaLocation="http://sumo.dlr.de/xsd/routes_file.xsd">
    <vType id="veh_passenger" vClass="passenger"/>
    <trip id="veh0" type="veh_passenger" depart="0.00" departLane="best" from="29186011" to="133276612#2"/>
    <trip id="veh1" type="veh_passenger" depart="2.10" departLane="best" from="-303890072#2" to="-29200406"/>
    <trip id="veh2" type="veh_passenger" depart="4.20" departLane="best" from="29200521#1" to="29200391#1"/>
    <trip id="veh5" type="veh_passenger" depart="10.50" departLane="best" from="-29200402#1" to="-230814873#3"/>
    <trip id="veh6" type="veh_passenger" depart="12.60" departLane="best" from="133276622" to="-29200317#1"/>
    <trip id="veh7" type="veh_passenger" depart="14.70" departLane="best" from="29186127#4" to="230827935"/>
    <trip id="veh8" type="veh_passenger" depart="16.80" departLane="best" from="-29200405#1" to="863572362"/>
    <trip id="veh10" type="veh_passenger" depart="21.00" departLane="best" from="374919907#4-AddedOffRampEdge" to="29200413#2"/>
    <trip id="veh11" type="veh_passenger" depart="23.10" departLane="best" from="375195635#3" to="-29185918#7"/>
    <trip id="veh12" type="veh_passenger" depart="25.20" departLane="best" from="863572361#1" to="-375195635#0"/>
    <trip id="veh13" type="veh_passenger" depart="27.30" departLane="best" from="230816764#0" to="-230817975#0"/>
    <trip id="veh14" type="veh_passenger" depart="29.40" departLane="best" from="480374700" to="-28846508#0"/>
    <trip id="veh15" type="veh_passenger" depart="31.50" departLane="best" from="374919907#4-AddedOffRampEdge" to="29200521#0"/>
    <trip id="veh16" type="veh_passenger" depart="33.60" departLane="best" from="-230845535#0" to="863572364#3"/>
    <trip id="veh17" type="veh_passenger" depart="35.70" departLane="best" from="374932272#1" to="29185908#3"/>
    <trip id="veh18" type="veh_passenger" depart="37.80" departLane="best" from="-734694477#2" to="230927436#5-AddedOffRampEdge"/>
    <trip id="veh19" type="veh_passenger" depart="39.90" departLane="best" from="29200413#2" to="-230814859#0"/>
    <trip id="veh20" type="veh_passenger" depart="42.00" departLane="best" from="29200417" to="-303890078#2"/>
    <trip id="veh21" type="veh_passenger" depart="44.10" departLane="best" from="-230814885#2" to="-29200446#1"/>
    <trip id="veh22" type="veh_passenger" depart="46.20" departLane="best" from="-230817975#5" to="-303890074#4"/>
    <trip id="veh23" type="veh_passenger" depart="48.30" departLane="best" from="29185937#2" to="758921496#2"/>
    <trip id="veh24" type="veh_passenger" depart="50.40" departLane="best" from="-759848619#1" to="-29200395#0"/>
    <trip id="veh25" type="veh_passenger" depart="52.50" departLane="best" from="29200549" to="759848633#10"/>
    <trip id="veh26" type="veh_passenger" depart="54.60" departLane="best" from="-29186127#1" to="28851445#1"/>
    <trip id="veh27" type="veh_passenger" depart="56.70" departLane="best" from="-29186127#1" to="29200520"/>
    <trip id="veh28" type="veh_passenger" depart="58.80" departLane="best" from="29186011" to="1012097541#1"/>
    <trip id="veh29" type="veh_passenger" depart="60.90" departLane="best" from="930604344#3" to="29186123#2"/>
    <trip id="veh30" type="veh_passenger" depart="63.00" departLane="best" from="230927436#0" to="-29200395#3"/>
    <trip id="veh31" type="veh_passenger" depart="65.10" departLane="best" from="375195636#3" to="309951591#1"/>
    <trip id="veh32" type="veh_passenger" depart="67.20" departLane="best" from="-29200419#0" to="-163692753#4"/>
    <trip id="veh33" type="veh_passenger" depart="69.30" departLane="best" from="-374907525#0" to="303768156#3"/>
    <trip id="veh34" type="veh_passenger" depart="71.40" departLane="best" from="29200395#1" to="759848633#9"/>
    <trip id="veh35" type="veh_passenger" depart="73.50" departLane="best" from="756961333#2" to="374907525#1"/>
    <trip id="veh36" type="veh_passenger" depart="75.60" departLane="best" from="29186182#1" to="1190644100#4"/>
    <trip id="veh37" type="veh_passenger" depart="77.70" departLane="best" from="759848590#10" to="-163692753#3"/>
    <trip id="veh38" type="veh_passenger" depart="79.80" departLane="best" from="230927436#3" to="-29200530"/>
    <trip id="veh40" type="veh_passenger" depart="84.00" departLane="best" from="1208475535#1" to="29200405#1"/>
    <trip id="veh41" type="veh_passenger" depart="86.10" departLane="best" from="935523611#1" to="-230814879#0"/>
    <trip id="veh42" type="veh_passenger" depart="88.20" departLane="best" from="230845535#0" to="-367135716#0"/>
    <trip id="veh43" type="veh_passenger" depart="90.30" departLane="best" from="-374907525#0" to="1246290074"/>
    <trip id="veh44" type="veh_passenger" depart="92.40" departLane="best" from="230814871#4" to="1103110802"/>
    <trip id="veh45" type="veh_passenger" depart="94.50" departLane="best" from="935523611#1" to="230814908#2"/>
    <trip id="veh46" type="veh_passenger" depart="96.60" departLane="best" from="863572364#2" to="755098097#0"/>
    <trip id="veh47" type="veh_passenger" depart="98.70" departLane="best" from="-1209953935" to="29200511#1"/>
    <trip id="veh48" type="veh_passenger" depart="100.80" departLane="best" from="29200391#0" to="230817975#2"/>
    <trip id="veh49" type="veh_passenger" depart="102.90" departLane="best" from="29200549" to="29186127#0"/>
    <trip id="veh50" type="veh_passenger" depart="105.00" departLane="best" from="-230845803#0" to="133276606#2"/>
    <trip id="veh51" type="veh_passenger" depart="107.10" departLane="best" from="170095410#0" to="863572361#0"/>
    <trip id="veh52" type="veh_passenger" depart="109.20" departLane="best" from="756961333#2" to="-29200538"/>
    <trip id="veh53" type="veh_passenger" depart="111.30" departLane="best" from="230814882#1" to="-29186194#0"/>
    <trip id="veh54" type="veh_passenger" depart="113.40" departLane="best" from="374923390#6" to="757545713#0"/>
    <trip id="veh55" type="veh_passenger" depart="115.50" departLane="best" from="-306115159#2" to="29186123#1"/>
    <trip id="veh56" type="veh_passenger" depart="117.60" departLane="best" from="28846443" to="-29185918#3"/>
    <trip id="veh57" type="veh_passenger" depart="119.70" departLane="best" from="-758921507" to="230817975#5"/>
    <trip id="veh58" type="veh_passenger" depart="121.80" departLane="best" from="306115160#1" to="230814908#4"/>
    <trip id="veh59" type="veh_passenger" depart="123.90" departLane="best" from="-1012097541#0" to="-374923397#4"/>
    <trip id="veh60" type="veh_passenger" depart="126.00" departLane="best" from="1245446446" to="759848593#0-AddedOnRampEdge"/>
    <trip id="veh61" type="veh_passenger" depart="128.10" departLane="best" from="759780305#3" to="-375195635#1"/>
    <trip id="veh62" type="veh_passenger" depart="130.20" departLane="best" from="309951592#2" to="-230814870#1"/>
    <trip id="veh63" type="veh_passenger" depart="132.30" departLane="best" from="756961333#3" to="759848635#7"/>
    <trip id="veh64" type="veh_passenger" depart="134.40" departLane="best" from="-230814875#2" to="-303890078#1"/>
    <trip id="veh65" type="veh_passenger" depart="136.50" departLane="best" from="303890077" to="28828042#1"/>
    <trip id="veh66" type="veh_passenger" depart="138.60" departLane="best" from="-230814861#0" to="230845803#0"/>
    <trip id="veh67" type="veh_passenger" depart="140.70" departLane="best" from="-29200538" to="757545713#2"/>
    <trip id="veh68" type="veh_passenger" depart="142.80" departLane="best" from="133276606#1" to="-29200395#4"/>
    <trip id="veh69" type="veh_passenger" depart="144.90" departLane="best" from="-230845803#1" to="29200521#1"/>
    <trip id="veh70" type="veh_passenger" depart="147.00" departLane="best" from="-29200335#1" to="-367135716#0"/>
    <trip id="veh71" type="veh_passenger" depart="149.10" departLane="best" from="935391525" to="29186182#1"/>
    <trip id="veh72" type="veh_passenger" depart="151.20" departLane="best" from="136470014#2" to="230814885#1"/>
    <trip id="veh73" type="veh_passenger" depart="153.30" departLane="best" from="375195635#0" to="863572362"/>
    <trip id="veh74" type="veh_passenger" depart="155.40" departLane="best" from="230814879#0" to="-29185942"/>
    <trip id="veh75" type="veh_passenger" depart="157.50" departLane="best" from="-29200419#0" to="759848590#3"/>
    <trip id="veh76" type="veh_passenger" depart="159.60" departLane="best" from="734694475" to="-230814879#0"/>
    <trip id="veh77" type="veh_passenger" depart="161.70" departLane="best" from="-29200448#5" to="29186273#1"/>
    <trip id="veh78" type="veh_passenger" depart="163.80" departLane="best" from="-29200398#2" to="28828045#1"/>
    <trip id="veh79" type="veh_passenger" depart="165.90" departLane="best" from="-759848619#0" to="230927436#2"/>
    <trip id="veh80" type="veh_passenger" depart="168.00" departLane="best" from="230814857#1" to="-29185932#0"/>
    <trip id="veh81" type="veh_passenger" depart="170.10" departLane="best" from="374919907#5" to="-29186250#0"/>
    <trip id="veh82" type="veh_passenger" depart="172.20" departLane="best" from="-230817972" to="133276606#0"/>
    <trip id="veh83" type="veh_passenger" depart="174.30" departLane="best" from="133276606#1" to="-170095410#2"/>
    <trip id="veh84" type="veh_passenger" depart="176.40" departLane="best" from="29200511#4" to="29200343"/>
    <trip id="veh85" type="veh_passenger" depart="178.50" departLane="best" from="-930576013" to="-230817975#2"/>
    <trip id="veh86" type="veh_passenger" depart="180.60" departLane="best" from="1209953406#0" to="-375195636#0"/>
    <trip id="veh87" type="veh_passenger" depart="182.70" departLane="best" from="-734694477#2" to="-29200511#2"/>
    <trip id="veh90" type="veh_passenger" depart="189.00" departLane="best" from="-29200511#2" to="759848592#5"/>
    <trip id="veh91" type="veh_passenger" depart="191.10" departLane="best" from="163692753#0" to="755098097#2"/>
    <trip id="veh92" type="veh_passenger" depart="193.20" departLane="best" from="230927029#14" to="-230814862#2"/>
    <trip id="veh93" type="veh_passenger" depart="195.30" departLane="best" from="170103979#2" to="-375195637#0"/>
    <trip id="veh94" type="veh_passenger" depart="197.40" departLane="best" from="863572364#0" to="759848592#5"/>
    <trip id="veh95" type="veh_passenger" depart="199.50" departLane="best" from="480374701#1" to="-29186113"/>
    <trip id="veh96" type="veh_passenger" depart="201.60" departLane="best" from="230814870#1" to="29200398#3"/>
    <trip id="veh97" type="veh_passenger" depart="203.70" departLane="best" from="1208475536#1" to="-230814870#2"/>
    <trip id="veh98" type="veh_passenger" depart="205.80" departLane="best" from="-967057415" to="874048705#0"/>
    <trip id="veh99" type="veh_passenger" depart="207.90" departLane="best" from="-29200538" to="367135716#1"/>
    <trip id="veh100" type="veh_passenger" depart="210.00" departLane="best" from="170095410#2" to="1246296674#0"/>
    <trip id="veh101" type="veh_passenger" depart="212.10" departLane="best" from="863572361#1" to="935391526"/>
    <trip id="veh102" type="veh_passenger" depart="214.20" departLane="best" from="-29185918#5" to="306115159#2"/>
    <trip id="veh103" type="veh_passenger" depart="216.30" departLane="best" from="734694478#3" to="759848590#1"/>
    <trip id="veh104" type="veh_passenger" depart="218.40" departLane="best" from="230845803#5" to="-303890074#1"/>
    <trip id="veh105" type="veh_passenger" depart="220.50" departLane="best" from="230814869#2" to="28809506#4"/>
    <trip id="veh106" type="veh_passenger" depart="222.60" departLane="best" from="230814882#7" to="734694477#1"/>
    <trip id="veh107" type="veh_passenger" depart="224.70" departLane="best" from="29185932#1" to="863572361#8"/>
    <trip id="veh108" type="veh_passenger" depart="226.80" departLane="best" from="-230814885#2" to="29186218#2"/>
    <trip id="veh109" type="veh_passenger" depart="228.90" departLane="best" from="28825667#2" to="29200388#2"/>
    <trip id="veh110" type="veh_passenger" depart="231.00" departLane="best" from="29200448#1" to="230927029#11"/>
    <trip id="veh111" type="veh_passenger" depart="233.10" departLane="best" from="757545713#9-AddedOffRampEdge" to="-29200484"/>
    <trip id="veh112" type="veh_passenger" depart="235.20" departLane="best" from="28825667#2" to="29185908#4"/>
    <trip id="veh113" type="veh_passenger" depart="237.30" departLane="best" from="-1247511253" to="28809506#3"/>
    <trip id="veh114" type="veh_passenger" depart="239.40" departLane="best" from="-230817963#1" to="759848633#10"/>
    <trip id="veh115" type="veh_passenger" depart="241.50" departLane="best" from="-29200391#1" to="-29200457#1"/>
    <trip id="veh116" type="veh_passenger" depart="243.60" departLane="best" from="-29200448#6" to="1190644100#4"/>
    <trip id="veh117" type="veh_passenger" depart="245.70" departLane="best" from="29186272#1" to="-306115161#1"/>
    <trip id="veh118" type="veh_passenger" depart="247.80" departLane="best" from="-374907525#1" to="-303890074#6"/>
    <trip id="veh119" type="veh_passenger" depart="249.90" departLane="best" from="170103979#2" to="935391527"/>
    <trip id="veh120" type="veh_passenger" depart="252.00" departLane="best" from="-230814882#1" to="29200398#2"/>
    <trip id="veh121" type="veh_passenger" depart="254.10" departLane="best" from="-29200538" to="759848633#0"/>
    <trip id="veh122" type="veh_passenger" depart="256.20" departLane="best" from="757545713#2" to="757545713#9"/>
    <trip id="veh123" type="veh_passenger" depart="258.30" departLane="best" from="759848619#0" to="-29185937#0"/>
    <trip id="veh124" type="veh_passenger" depart="260.40" departLane="best" from="-375195628#0" to="29200420#1"/>
    <trip id="veh125" type="veh_passenger" depart="262.50" departLane="best" from="-28851355#0" to="-930555266"/>
    <trip id="veh126" type="veh_passenger" depart="264.60" departLane="best" from="374923391#3" to="-306115161#0"/>
    <trip id="veh127" type="veh_passenger" depart="266.70" departLane="best" from="29186218#1" to="759848633#3"/>
    <trip id="veh128" type="veh_passenger" depart="268.80" departLane="best" from="28846443" to="-230845901#0"/>
    <trip id="veh129" type="veh_passenger" depart="270.90" departLane="best" from="230827935" to="-230845803#5"/>
    <trip id="veh130" type="veh_passenger" depart="273.00" departLane="best" from="303768195#1" to="-28846508#1"/>
    <trip id="veh131" type="veh_passenger" depart="275.10" departLane="best" from="29200448#8" to="-29200391#2"/>
    <trip id="veh132" type="veh_passenger" depart="277.20" departLane="best" from="-29185937#0" to="-29200548#0"/>
    <trip id="veh133" type="veh_passenger" depart="279.30" departLane="best" from="230814871#1" to="759848590#3"/>
    <trip id="veh134" type="veh_passenger" depart="281.40" departLane="best" from="-375195637#2" to="-230816764#0"/>
    <trip id="veh135" type="veh_passenger" depart="283.50" departLane="best" from="133276606#1" to="-303890074#2"/>
    <trip id="veh136" type="veh_passenger" depart="285.60" departLane="best" from="1155676530#0" to="306115159#4"/>
    <trip id="veh137" type="veh_passenger" depart="287.70" departLane="best" from="29185942" to="-29200529#2"/>
    <trip id="veh138" type="veh_passenger" depart="289.80" departLane="best" from="29200529#2" to="230845803#3"/>
    <trip id="veh139" type="veh_passenger" depart="291.90" departLane="best" departSpeed="max" from="133276621#0" to="-1209953408"/>
    <trip id="veh140" type="veh_passenger" depart="294.00" departLane="best" from="230814882#5" to="758060824#0"/>
    <trip id="veh141" type="veh_passenger" depart="296.10" departLane="best" departSpeed="max" from="759780305#0" to="230827936#0"/>
    <trip id="veh142" type="veh_passenger" depart="298.20" departLane="best" from="375195628#2" to="28809506#3"/>
    <trip id="veh143" type="veh_passenger" depart="300.30" departLane="best" from="29185908#1" to="-230927029#9"/>
    <trip id="veh145" type="veh_passenger" depart="304.50" departLane="best" departSpeed="max" from="374919907#0" to="755098097#0"/>
    <trip id="veh146" type="veh_passenger" depart="306.60" departLane="best" from="759398737" to="-29200395#1"/>
    <trip id="veh147" type="veh_passenger" depart="308.70" departLane="best" from="-29200511#2" to="230821685"/>
    <trip id="veh148" type="veh_passenger" depart="310.80" departLane="best" from="306115161#1" to="758060824#0"/>
    <trip id="veh149" type="veh_passenger" depart="312.90" departLane="best" from="734694478#2" to="863572364#3"/>
    <trip id="veh150" type="veh_passenger" depart="315.00" departLane="best" from="759848593#3" to="757545713#9-AddedOffRampEdge"/>
    <trip id="veh151" type="veh_passenger" depart="317.10" departLane="best" from="133276612#1" to="29200538"/>
    <trip id="veh152" type="veh_passenger" depart="319.20" departLane="best" from="-374932272#6" to="759848593#2"/>
    <trip id="veh153" type="veh_passenger" depart="321.30" departLane="best" from="374919907#1" to="-755098099"/>
    <trip id="veh154" type="veh_passenger" depart="323.40" departLane="best" from="374923390#1" to="303768156#2"/>
    <trip id="veh155" type="veh_passenger" depart="325.50" departLane="best" from="367135185#2" to="230827936#1"/>
    <trip id="veh156" type="veh_passenger" depart="327.60" departLane="best" from="755098099" to="753703772#0"/>
    <trip id="veh157" type="veh_passenger" depart="329.70" departLane="best" from="-29200405#4" to="374923397#2"/>
    <trip id="veh158" type="veh_passenger" depart="331.80" departLane="best" from="170103976#2" to="-309951592#0"/>
    <trip id="veh159" type="veh_passenger" depart="333.90" departLane="best" departSpeed="max" from="374919907#0" to="-29200419#0"/>
    <trip id="veh160" type="veh_passenger" depart="336.00" departLane="best" from="133276612#0" to="-29186272#1"/>
    <trip id="veh161" type="veh_passenger" depart="338.10" departLane="best" from="-374932272#0" to="756961333#0"/>
    <trip id="veh162" type="veh_passenger" depart="340.20" departLane="best" from="28825665" to="-303890074#6"/>
    <trip id="veh163" type="veh_passenger" depart="342.30" departLane="best" from="29186111#0" to="1190644100#6"/>
    <trip id="veh164" type="veh_passenger" depart="344.40" departLane="best" from="756961333#3" to="230817975#1"/>
    <trip id="veh165" type="veh_passenger" depart="346.50" departLane="best" from="759848635#6" to="-230845901#0"/>
    <trip id="veh166" type="veh_passenger" depart="348.60" departLane="best" from="863572364#1" to="29186194#0"/>
    <trip id="veh167" type="veh_passenger" depart="350.70" departLane="best" from="863572361#6" to="-29200549"/>
    <trip id="veh168" type="veh_passenger" depart="352.80" departLane="best" from="-230827936#1" to="133276606#2"/>
    <trip id="veh169" type="veh_passenger" depart="354.90" departLane="best" from="29200511#4" to="374907525#0"/>
    <trip id="veh170" type="veh_passenger" depart="357.00" departLane="best" from="-28828042#4" to="-230814882#1"/>
    <trip id="veh171" type="veh_passenger" depart="359.10" departLane="best" from="1190644100#0" to="230927436#5-AddedOffRampEdge"/>
    <trip id="veh172" type="veh_passenger" depart="361.20" departLane="best" from="-29200517#0" to="29200448#3"/>
    <trip id="veh173" type="veh_passenger" depart="363.30" departLane="best" from="-1012097541#2" to="759848592#5"/>
    <trip id="veh174" type="veh_passenger" depart="365.40" departLane="best" from="-230845803#0" to="29200484"/>
    <trip id="veh175" type="veh_passenger" depart="367.50" departLane="best" from="29200530" to="-29200317#1"/>
    <trip id="veh176" type="veh_passenger" depart="369.60" departLane="best" from="755098098#1" to="-230814876"/>
    <trip id="veh177" type="veh_passenger" depart="371.70" departLane="best" from="-29186228#0" to="-374932272#6"/>
    <trip id="veh178" type="veh_passenger" depart="373.80" departLane="best" from="367135716#1" to="570143722#3"/>
    <trip id="veh179" type="veh_passenger" depart="375.90" departLane="best" from="29200453#1" to="-306115161#1"/>
    <trip id="veh180" type="veh_passenger" depart="378.00" departLane="best" from="367135185#0" to="1209953406#1"/>
    <trip id="veh181" type="veh_passenger" depart="380.10" departLane="best" from="1209953406#0" to="306115159#0"/>
    <trip id="veh182" type="veh_passenger" depart="382.20" departLane="best" from="-230927029#8" to="1209965586"/>
    <trip id="veh183" type="veh_passenger" depart="384.30" departLane="best" from="759848635#5" to="29200391#2"/>
    <trip id="veh184" type="veh_passenger" depart="386.40" departLane="best" departSpeed="max" from="759780305#0" to="-29185903#8"/>
    <trip id="veh185" type="veh_passenger" depart="388.50" departLane="best" from="306115161#0" to="230845535#1"/>
    <trip id="veh186" type="veh_passenger" depart="390.60" departLane="best" from="-1012097541#0" to="-303890077"/>
    <trip id="veh188" type="veh_passenger" depart="394.80" departLane="best" from="-29186182#0" to="170095400"/>
    <trip id="veh190" type="veh_passenger" depart="399.00" departLane="best" from="230814859#0" to="759780305#3"/>
    <trip id="veh191" type="veh_passenger" depart="401.10" departLane="best" departSpeed="max" from="374919907#0" to="29186127#0"/>
    <trip id="veh192" type="veh_passenger" depart="403.20" departLane="best" from="29185932#2" to="-375195630"/>
    <trip id="veh193" type="veh_passenger" depart="405.30" departLane="best" from="-374923391#5" to="-303890074#5"/>
    <trip id="veh194" type="veh_passenger" depart="407.40" departLane="best" from="-29186272#3" to="29200413#1"/>
    <trip id="veh195" type="veh_passenger" depart="409.50" departLane="best" from="-29200317#0" to="133276612#1"/>
    <trip id="veh196" type="veh_passenger" depart="411.60" departLane="best" from="29200457#1" to="170103976#5"/>
    <trip id="veh197" type="veh_passenger" depart="413.70" departLane="best" from="481783596#1" to="-230814882#1"/>
    <trip id="veh198" type="veh_passenger" depart="415.80" departLane="best" from="-1209965585#0" to="-29185937#2"/>
    <trip id="veh199" type="veh_passenger" depart="417.90" departLane="best" from="-29186272#1" to="29200406"/>
    <trip id="veh200" type="veh_passenger" depart="420.00" departLane="best" from="230814873#3" to="-29200471#0"/>
    <trip id="veh201" type="veh_passenger" depart="422.10" departLane="best" from="29186182#2" to="-1209953406#0"/>
    <trip id="veh202" type="veh_passenger" depart="424.20" departLane="best" from="303768195#1" to="-306115159#3"/>
    <trip id="veh203" type="veh_passenger" depart="426.30" departLane="best" from="230827931" to="-170103984#2"/>
    <trip id="veh204" type="veh_passenger" depart="428.40" departLane="best" from="-29186132#2" to="863572361#6"/>
    <trip id="veh205" type="veh_passenger" depart="430.50" departLane="best" from="-29200511#1" to="-570143722#3"/>
    <trip id="veh206" type="veh_passenger" depart="432.60" departLane="best" from="170103976#0" to="374920055"/>
    <trip id="veh207" type="veh_passenger" depart="434.70" departLane="best" from="29186240#2" to="930576013"/>
    <trip id="veh208" type="veh_passenger" depart="436.80" departLane="best" from="28825667#2" to="863572360#0-AddedOnRampEdge"/>
    <trip id="veh210" type="veh_passenger" depart="441.00" departLane="best" from="29200450#1" to="-230814873#2"/>
    <trip id="veh211" type="veh_passenger" depart="443.10" departLane="best" from="374932272#3" to="230845535#0"/>
    <trip id="veh212" type="veh_passenger" depart="445.20" departLane="best" from="758921496#2" to="303768194#1"/>
    <trip id="veh213" type="veh_passenger" depart="447.30" departLane="best" from="230814859#2" to="-29200522#2"/>
    <trip id="veh214" type="veh_passenger" depart="449.40" departLane="best" from="-29200484" to="-29186113"/>
    <trip id="veh215" type="veh_passenger" depart="451.50" departLane="best" from="303890077" to="230814888#1"/>
    <trip id="veh216" type="veh_passenger" depart="453.60" departLane="best" from="29185918#1" to="303890072#3"/>
    <trip id="veh217" type="veh_passenger" depart="455.70" departLane="best" from="-230814884#1" to="303890076#6"/>
    <trip id="veh218" type="veh_passenger" depart="457.80" departLane="best" from="-303768195#0" to="374923391#5"/>
    <trip id="veh219" type="veh_passenger" depart="459.90" departLane="best" from="-230845803#2" to="-28851445#0"/>
    <trip id="veh220" type="veh_passenger" depart="462.00" departLane="best" from="-29200420#1" to="-29200405#2"/>
    <trip id="veh221" type="veh_passenger" depart="464.10" departLane="best" from="29200417" to="-230814871#6"/>
    <trip id="veh222" type="veh_passenger" depart="466.20" departLane="best" from="1209953409" to="230826826"/>
    <trip id="veh223" type="veh_passenger" depart="468.30" departLane="best" from="1209965586" to="-29200394#3"/>
    <trip id="veh224" type="veh_passenger" depart="470.40" departLane="best" from="-170103984#1" to="759848590#10"/>
    <trip id="veh225" type="veh_passenger" depart="472.50" departLane="best" from="28809506#7" to="-29200405#5"/>
    <trip id="veh226" type="veh_passenger" depart="474.60" departLane="best" from="570143722#5" to="303890084#1"/>
    <trip id="veh227" type="veh_passenger" depart="476.70" departLane="best" from="-483374903" to="303890076#0"/>
    <trip id="veh228" type="veh_passenger" depart="478.80" departLane="best" from="570141014" to="863572361#0"/>
    <trip id="veh229" type="veh_passenger" depart="480.90" departLane="best" from="-1247511253" to="303890072#3"/>
    <trip id="veh230" type="veh_passenger" depart="483.00" departLane="best" from="230927028#1" to="-28846443"/>
    <trip id="veh231" type="veh_passenger" depart="485.10" departLane="best" from="136470013#7" to="163692753#11"/>
    <trip id="veh232" type="veh_passenger" depart="487.20" departLane="best" from="-375195628#4" to="-29200394#0"/>
    <trip id="veh233" type="veh_passenger" depart="489.30" departLane="best" from="1209953406#2" to="-29186111#1"/>
    <trip id="veh234" type="veh_passenger" depart="491.40" departLane="best" from="170103979#1" to="28828042#0"/>
    <trip id="veh235" type="veh_passenger" depart="493.50" departLane="best" from="-29185908#0" to="-163692753#0"/>
    <trip id="veh236" type="veh_passenger" depart="495.60" departLane="best" from="1190644100#6" to="230927029#3"/>
    <trip id="veh237" type="veh_passenger" depart="497.70" departLane="best" from="163692753#0" to="29186127#2"/>
    <trip id="veh238" type="veh_passenger" depart="499.80" departLane="best" from="28846508#1" to="-163692753#7"/>
    <trip id="veh239" type="veh_passenger" depart="501.90" departLane="best" from="29200395#2" to="-374932272#0"/>
    <trip id="veh240" type="veh_passenger" depart="504.00" departLane="best" from="-303890076#2" to="1012097541#1"/>
    <trip id="veh241" type="veh_passenger" depart="506.10" departLane="best" from="-303768195#2" to="-375195635#2"/>
    <trip id="veh242" type="veh_passenger" depart="508.20" departLane="best" from="-29200511#6" to="-230814888#0"/>
    <trip id="veh243" type="veh_passenger" depart="510.30" departLane="best" from="-1209965586" to="230817975#5"/>
    <trip id="veh244" type="veh_passenger" depart="512.40" departLane="best" from="975152615" to="-483374903"/>
    <trip id="veh245" type="veh_passenger" depart="514.50" departLane="best" from="29186127#4" to="136470013#3"/>
    <trip id="veh246" type="veh_passenger" depart="516.60" departLane="best" from="-29186132#2" to="303890076#1"/>
    <trip id="veh247" type="veh_passenger" depart="518.70" departLane="best" from="759848635#6" to="29200335#0"/>
    <trip id="veh248" type="veh_passenger" depart="520.80" departLane="best" from="-1246290074" to="-29185918#3"/>
    <trip id="veh249" type="veh_passenger" depart="522.90" departLane="best" from="-230927029#7" to="29186273#2"/>