<?xml version="1.0" encoding="UTF-8"?>

<!-- generated on 2024-02-17 11:59:19 by Eclipse SUMO polyconvert Version 1.19.0
<configuration xmlns:xsi="http://www.w3.org/2001/XMLSchema-instance" xsi:noNamespaceSchemaLocation="http://sumo.dlr.de/xsd/polyconvertConfiguration.xsd">

    <input>
        <net-file value="osm.net.xml.gz"/>
        <osm-files value="osm_bbox.osm.xml.gz"/>
        <osm.keep-full-type value="true"/>
        <type-file value="${SUMO_HOME}/data/typemap/osmPolyconvert.typ.xml"/>
    </input>

    <output>
        <output-file value="osm.poly.xml.gz"/>
    </output>

    <report>
        <verbose value="true"/>
    </report>

</configuration>
-->

<additional xmlns:xsi="http://www.w3.org/2001/XMLSchema-instance" xsi:noNamespaceSchemaLocation="http://sumo.dlr.de/xsd/additional_file.xsd">
    <location netOffset="-8437308.74,-3108391.71" convBoundary="-3621.53,-1185.26,4605.81,4591.04" origBoundary="75.761101,26.869736,75.835009,26.916014" projParameter="+proj=merc +a=6378137 +b=6378137 +lat_ts=0.0 +lon_0=0.0 +x_0=0.0 +y_0=0 +k=1.0 +units=m +nadgrids=@null +wktext +no_defs"/>

    <poly id="1092565175" type="building.yes" color="255,230,230" fill="1" layer="-1.00" shape="532.354321,2655.967032 540.380456,2652.134858 538.321045,2648.152893 535.337683,2649.575915 529.370958,2635.295773 553.805586,2624.648089 566.017335,2650.562044 563.245479,2652.059962 568.310516,2663.381730 604.745385,2646.617528 599.847328,2635.757630 597.787917,2636.544036 585.286738,2609.693911 608.764019,2598.883973 614.931119,2612.652291 612.738125,2613.413730 614.842063,2617.894990 622.445185,2614.424822 620.085211,2610.367972 617.803162,2611.391546 616.623175,2608.096137 627.766256,2603.277850 624.048185,2595.176640 618.983148,2597.535852 613.829056,2586.675992 605.135004,2590.133671 602.763899,2585.415250 522.580469,2622.401216 525.151950,2627.057236 515.177723,2632.075253 519.530315,2642.211155 516.491293,2643.584245 520.008989,2653.083539 531.530556,2648.152893 532.621487,2650.849145 530.306042,2651.860240 532.354321,2655.967032"/>
    <poly id="133276628" type="natural.water" color="181,209,209" fill="1" layer="-4.00" shape="1040.872887,2565.917456 1049.544675,2575.841106 1073.433838,2600.082303 1069.426336,2606.548293 1063.582063,2612.327743 1052.483509,2620.066966 1038.056503,2627.182062 1035.151065,2626.295796 1032.434869,2621.727155 1034.138057,2615.011505 1034.839370,2599.046246 1035.485023,2585.989450 1034.104661,2575.903519 1032.189966,2571.172621 1032.913543,2568.538797 1036.331051,2566.142143 1040.872887,2565.917456"/>
    <poly id="230816777" type="leisure.garden" color="207,245,201" fill="1" layer="-2.00" shape="812.044541,2417.737601 803.027662,2419.173082 794.055312,2417.438022 786.218419,2412.732142 780.463202,2405.642119 777.479839,2397.004279 778.559638,2384.384553 782.967890,2376.370846 789.847435,2370.354328 798.363376,2367.058974 807.502706,2366.871738 816.308078,2369.904961 823.387997,2375.684314 828.063416,2383.535749 829.777736,2392.510606 828.308319,2401.535399 823.844407,2409.499191 816.931467,2415.478279 812.044541,2417.737601"/>
    <poly id="230821677" type="leisure.pitch" color="207,245,201" fill="1" layer="-2.00" shape="871.578205,1753.088159 822.285934,1647.679294 755.906122,1678.721467 805.198393,1784.130565 871.578205,1753.088159"/>
    <poly id="230821677#1" type="sport.field_hockey" color="79,230,125" fill="1" layer="-2.00" shape="871.578205,1753.088159 822.285934,1647.679294 755.906122,1678.721467 805.198393,1784.130565 871.578205,1753.088159"/>
    <poly id="230823024" type="building.yes" color="255,230,230" fill="1" layer="-1.00" shape="841.777977,1922.967219 869.407475,1908.051231 840.364220,1854.241469 813.057549,1868.970170 821.629149,1884.834746 806.990636,1892.748318 817.588252,1912.382483 831.892806,1904.656130 841.777977,1922.967219"/>
    <poly id="230826820" type="building.yes" color="255,230,230" fill="1" layer="-1.00" shape="1277.159638,1652.622072 1211.792833,1566.111222 1256.042330,1532.660335 1309.564741,1603.468966 1312.659423,1607.562971 1321.420267,1619.170980 1277.159638,1652.622072"/>
    <poly id="230826821" type="amenity.hospital" color="237,199,199" fill="1" layer="-1.00" shape="1222.123281,1637.194618 1180.890542,1668.249251 1193.747943,1685.311853 1205.403094,1676.537155 1235.414829,1677.747888 1246.424326,1669.459983 1222.123281,1637.194618"/>
    <poly id="230826821#1" type="building.yes" color="255,230,230" fill="1" layer="-1.00" shape="1222.123281,1637.194618 1180.890542,1668.249251 1193.747943,1685.311853 1205.403094,1676.537155 1235.414829,1677.747888 1246.424326,1669.459983 1222.123281,1637.194618"/>
    <poly id="230826823" type="building.yes" color="255,230,230" fill="1" layer="-1.00" shape="926.469846,1076.213447 920.391802,1077.723679 914.413945,1076.825029 909.437964,1073.941859 905.975928,1069.735677 904.194816,1064.855510 904.194816,1059.039251 906.376678,1053.485100 909.482492,1049.915467 913.523389,1047.419221 918.198808,1046.221023 922.217441,1046.345835 927.104367,1047.993357 931.390167,1051.313365 934.406926,1056.168566 935.497857,1062.084673 934.206550,1068.200484 930.544139,1073.430128 926.469846,1076.213447"/>
    <poly id="230826827" type="building.yes" color="255,230,230" fill="1" layer="-1.00" shape="1315.509202,1602.270720 1315.498070,1596.916063 1316.221647,1594.257458 1318.904447,1589.639225 1323.012136,1586.219237 1328.043777,1584.409389 1333.387112,1584.434353 1336.915940,1585.520261 1341.346456,1588.515871 1344.485666,1592.834543 1345.955083,1597.977009 1345.576597,1603.306703 1343.405867,1608.187057 1339.687796,1612.018948 1335.936329,1614.016025 1330.670917,1614.952154 1325.416637,1614.040988 1320.785746,1611.369898 1317.345974,1607.288373 1312.659423,1607.562971 1309.564741,1603.468966 1315.509202,1602.270720"/>
    <poly id="230826832" type="building.yes" color="255,230,230" fill="1" layer="-1.00" shape="1068.769551,1264.644215 1101.163523,1241.753306 1086.502746,1221.009232 1074.491373,1229.496575 1065.997696,1217.464519 1036.909913,1238.021367 1064.127528,1276.539015 1072.832712,1270.385671 1068.769551,1264.644215"/>
    <poly id="230826834" type="building.yes" color="255,230,230" fill="1" layer="-1.00" shape="1028.093409,1225.752158 1064.517146,1199.179309 1060.008707,1191.415903 1024.208359,1207.229791 1025.410609,1223.655285 1028.093409,1225.752158"/>
    <poly id="230826836" type="building.yes" color="255,230,230" fill="1" layer="-1.00" shape="1111.315860,1656.616237 1119.809537,1652.709444 1132.956369,1655.655141 1136.852551,1638.293013 1118.562759,1634.186517 1116.581272,1642.998634 1106.139504,1647.829075 1093.159651,1644.920825 1089.296865,1662.158144 1109.078339,1666.601656 1111.315860,1656.616237"/>
    <poly id="230827926" type="building.yes" color="255,230,230" fill="1" layer="-1.00" shape="709.697401,1600.186273 706.502532,1594.032787 711.589833,1591.399146 707.994213,1584.446834 722.721782,1576.820515 718.736544,1569.119309 691.062519,1583.448298 660.950596,1599.050437 650.030154,1577.968831 639.477067,1583.435816 650.397509,1604.517430 635.725600,1612.118802 643.317589,1626.759878 698.654508,1598.101826 701.838245,1604.255314 709.697401,1600.186273"/>
    <poly id="230827941" type="building.yes" color="255,230,230" fill="1" layer="-1.00" shape="1103.456704,1078.971805 1091.000053,1056.667815 1071.341031,1067.663790 1083.797682,1089.955316 1103.456704,1078.971805"/>
    <poly id="230837550" type="building.yes" color="255,230,230" fill="1" layer="-1.00" shape="1360.716047,1801.517837 1338.541205,1758.530249 1313.026778,1771.686134 1335.190488,1814.686244 1360.716047,1801.517837"/>
    <poly id="230837551" type="building.yes" color="255,230,230" fill="1" layer="-1.00" shape="1017.172967,2097.591545 1007.510435,2076.459266 1028.694534,2066.785610 1012.853771,2032.135254 991.680804,2041.808886 981.561862,2019.678123 929.141514,2043.643756 939.661205,2066.648307 918.477106,2076.321962 934.028439,2110.348318 955.212538,2100.674639 964.752619,2121.544829 1017.172967,2097.591545"/>
    <poly id="230837973" type="building.yes" color="255,230,230" fill="1" layer="-1.00" shape="938.225184,1249.466814 971.042170,1231.780670 978.066430,1244.823731 968.025412,1250.228180 969.405773,1252.774388 943.345881,1266.803502 940.518366,1261.561304 943.791159,1259.801424 938.225184,1249.466814"/>
    <poly id="230837974" type="building.yes" color="255,230,230" fill="1" layer="-1.00" shape="1044.947180,957.954050 1026.256637,966.316424 1035.039745,985.949299 1041.685519,982.978779 1042.709658,985.250353 1049.088265,985.662232 1055.967809,982.579382 1044.947180,957.954050"/>
    <poly id="230837975" type="building.yes" color="255,230,230" fill="1" layer="-1.00" shape="950.258821,1273.867989 966.422411,1265.755062 965.209029,1263.321185 982.374494,1254.696526 990.122331,1270.136042 964.229417,1283.129213 965.142237,1284.963985 957.706095,1288.695936 950.258821,1273.867989"/>
    <poly id="230837976" type="building.yes" color="255,230,230" fill="1" layer="-1.00" shape="908.847970,1151.662837 915.950154,1165.729293 933.828064,1156.705291 940.752136,1170.409795 906.354414,1187.783828 892.328158,1160.012843 908.847970,1151.662837"/>
    <poly id="230837977" type="building.yes" color="255,230,230" fill="1" layer="-1.00" shape="964.307341,1219.623798 946.407167,1184.638528 914.658848,1200.889256 934.340134,1239.356877 949.323737,1231.693300 947.531493,1228.198510 964.307341,1219.623798"/>
    <poly id="230838578" type="building.yes" color="255,230,230" fill="1" layer="-1.00" shape="580.900751,1341.155539 592.010436,1335.776018 585.442586,1322.221132 558.581193,1335.239315 567.798446,1354.261110 583.561286,1346.622433 580.900751,1341.155539"/>
    <poly id="230838711" type="building.yes" color="255,230,230" fill="1" layer="-1.00" shape="995.487930,1318.002395 1012.464152,1310.126590 1019.722183,1325.765871 1002.745961,1333.641685 995.487930,1318.002395"/>
    <poly id="230838712" type="building.yes" color="255,230,230" fill="1" layer="-1.00" shape="983.098071,1299.754499 1001.421259,1290.143783 1006.964970,1300.728052 988.652913,1310.338775 983.098071,1299.754499"/>
    <poly id="230838713" type="building.yes" color="255,230,230" fill="1" layer="-1.00" shape="864.041875,1495.652265 882.843737,1485.467261 894.365305,1506.735953 875.563443,1516.920972 864.041875,1495.652265"/>
    <poly id="230838714" type="building.yes" color="255,230,230" fill="1" layer="-1.00" shape="1108.911359,1286.648979 1127.824541,1273.892952 1138.945358,1290.380931 1120.032176,1303.136973 1108.911359,1286.648979"/>
    <poly id="230838715" type="building.yes" color="255,230,230" fill="1" layer="-1.00" shape="988.886684,1383.992077 1005.094802,1371.785148 1012.898298,1382.132329 996.679049,1394.351749 988.886684,1383.992077"/>
    <poly id="230838716" type="building.yes" color="255,230,230" fill="1" layer="-1.00" shape="1010.449270,1368.040694 1021.202732,1360.639158 1028.026617,1370.536997 1017.273154,1377.951019 1010.449270,1368.040694"/>
    <poly id="230838724" type="natural.scrub" color="140,196,107" fill="1" layer="-4.00" shape="1085.478606,1555.264638 1069.259357,1539.263135 1024.475526,1483.732316 1017.907676,1480.437170 1010.438138,1479.550976 1002.679169,1480.437170 931.312244,1518.655921 941.765144,1541.060495 960.878700,1521.052397 975.506082,1505.824794 1002.679169,1491.495884 1016.415994,1493.879874 1026.546068,1506.286614 1037.911788,1526.132429 1073.122143,1563.914445 1085.478606,1555.264638"/>
    <poly id="230927025" type="building.yes" color="255,230,230" fill="1" layer="-1.00" shape="2586.054210,1739.620245 2569.924016,1708.865019 2540.958685,1710.063273 2536.183079,1736.936649 2550.498765,1820.814863 2600.659328,1875.460789 2614.997278,1868.895279 2615.910098,1856.962533 2602.774398,1816.358820 2599.779904,1787.088771 2587.545892,1760.215300 2586.655336,1747.920672 2586.054210,1739.620245"/>
    <poly id="230927025#1" type="historic.fort" color="128,255,128" fill="1" layer="-1.00" shape="2586.054210,1739.620245 2569.924016,1708.865019 2540.958685,1710.063273 2536.183079,1736.936649 2550.498765,1820.814863 2600.659328,1875.460789 2614.997278,1868.895279 2615.910098,1856.962533 2602.774398,1816.358820 2599.779904,1787.088771 2587.545892,1760.215300 2586.655336,1747.920672 2586.054210,1739.620245"/>
    <poly id="230927032" type="amenity.place_of_worship" color="237,199,199" fill="1" layer="-1.00" shape="2477.261672,1623.639443 2466.908959,1582.761804 2388.662489,1602.557800 2399.015202,1643.447977 2477.261672,1623.639443"/>
    <poly id="230927032#1" type="building.yes" color="255,230,230" fill="1" layer="-1.00" shape="2477.261672,1623.639443 2466.908959,1582.761804 2388.662489,1602.557800 2399.015202,1643.447977 2477.261672,1623.639443"/>
    <poly id="277267723" type="building.apartments" color="255,230,230" fill="1" layer="-1.00" shape="793.387395,787.899400 855.915553,760.104240 869.285023,790.308233 806.211400,817.292185 793.387395,787.899400"/>
    <poly id="367135158" type="leisure.pitch" color="207,245,201" fill="1" layer="-2.00" shape="1014.868653,2327.864300 1147.338848,2597.797986 1151.012391,2601.467872 1154.685934,2602.691167 1158.960602,2603.302815 1163.246403,2602.379102 1294.725853,2537.856658 1320.106697,2525.623766 1327.142089,2520.730611 1332.952966,2515.537878 1334.789738,2510.644728 1334.789738,2501.782138 1334.177481,2495.054063 1332.952966,2487.102705 1258.235324,2330.335808 1224.505519,2257.251748 1219.362558,2246.030165 1215.388452,2241.748740 1211.714909,2238.990154 1204.991212,2234.409157 1199.792592,2233.797525 1194.293409,2234.708732 1022.438379,2319.413742 1017.095043,2322.621708 1015.603362,2324.194485 1014.890917,2326.066840 1014.868653,2327.864300"/>
    <poly id="367135159" type="leisure.pitch" color="207,245,201" fill="1" layer="-2.00" shape="1148.029028,1810.479842 1139.591011,1795.788647 1128.882076,1783.406616 1115.379022,1773.296296 1100.829564,1765.719801 1084.031453,1762.486998 1067.289002,1760.976693 1051.158807,1762.699190 1035.807850,1767.442299 1020.891038,1776.104717 1008.746081,1786.589496 998.838647,1799.246132 991.057414,1814.648799 986.515579,1830.812880 985.458044,1847.326474 987.595378,1864.114690 992.782866,1879.667211 1000.998245,1894.158782 1010.738700,1907.127564 1024.353074,1917.300390 1039.982331,1924.415132 1055.923282,1929.195741 1072.665733,1930.019553 1089.653087,1928.971065 1105.794414,1924.277830 1120.355003,1914.491940 1132.076945,1903.545233 1142.407394,1890.701274 1149.754480,1875.498235 1155.164608,1859.995646 1155.353851,1842.808013 1154.084809,1826.057268 1148.029028,1810.479842"/>
    <poly id="367135159#1" type="sport.cricket" color="79,230,125" fill="1" layer="-2.00" shape="1148.029028,1810.479842 1139.591011,1795.788647 1128.882076,1783.406616 1115.379022,1773.296296 1100.829564,1765.719801 1084.031453,1762.486998 1067.289002,1760.976693 1051.158807,1762.699190 1035.807850,1767.442299 1020.891038,1776.104717 1008.746081,1786.589496 998.838647,1799.246132 991.057414,1814.648799 986.515579,1830.812880 985.458044,1847.326474 987.595378,1864.114690 992.782866,1879.667211 1000.998245,1894.158782 1010.738700,1907.127564 1024.353074,1917.300390 1039.982331,1924.415132 1055.923282,1929.195741 1072.665733,1930.019553 1089.653087,1928.971065 1105.794414,1924.277830 1120.355003,1914.491940 1132.076945,1903.545233 1142.407394,1890.701274 1149.754480,1875.498235 1155.164608,1859.995646 1155.353851,1842.808013 1154.084809,1826.057268 1148.029028,1810.479842"/>
    <poly id="367135161" type="leisure.pitch" color="207,245,201" fill="1" layer="-2.00" shape="1251.088613,1854.678337 1295.404902,1941.577900 1314.106577,1932.041639 1317.780120,1939.268727 1366.571453,1914.379602 1363.855257,1909.037309 1376.133797,1902.783832 1375.176449,1900.899052 1385.874252,1895.444426 1386.998579,1889.802572 1382.133917,1880.391165 1389.803830,1875.098812 1354.237253,1806.885054 1329.891680,1819.579154 1325.127206,1810.454878 1272.105733,1838.102325 1274.410046,1842.520929 1251.088613,1854.678337"/>
    <poly id="367135161#1" type="sport.cricket" color="79,230,125" fill="1" layer="-2.00" shape="1251.088613,1854.678337 1295.404902,1941.577900 1314.106577,1932.041639 1317.780120,1939.268727 1366.571453,1914.379602 1363.855257,1909.037309 1376.133797,1902.783832 1375.176449,1900.899052 1385.874252,1895.444426 1386.998579,1889.802572 1382.133917,1880.391165 1389.803830,1875.098812 1354.237253,1806.885054 1329.891680,1819.579154 1325.127206,1810.454878 1272.105733,1838.102325 1274.410046,1842.520929 1251.088613,1854.678337"/>
    <poly id="375062965" type="building.yes" color="255,230,230" fill="1" layer="-1.00" shape="2883.967432,2272.842150 2873.458872,2277.822595 2870.931919,2272.505128 2858.464136,2278.409264 2860.991089,2283.726733 2849.491785,2289.181509 2880.928410,2355.487796 2895.667110,2348.510143 2909.281484,2377.244615 2929.029562,2367.882813 2883.967432,2272.842150"/>
    <poly id="375062966" type="building.yes" color="255,230,230" fill="1" layer="-1.00" shape="2890.045476,2356.349081 2868.260252,2365.423780 2875.139796,2381.938000 2884.279126,2378.118383 2886.216085,2382.761840 2883.967432,2383.698020 2893.206949,2405.841838 2895.455603,2404.905655 2897.314639,2409.386849 2885.681752,2414.242517 2890.613205,2426.063392 2914.903118,2415.927646 2890.045476,2356.349081"/>
    <poly id="375062967" type="building.yes" color="255,230,230" fill="1" layer="-1.00" shape="3078.231075,2435.799707 3096.643319,2427.898313 3089.596795,2411.433968 3071.173419,2419.335353 3078.231075,2435.799707"/>
    <poly id="375062970" type="building.yes" color="255,230,230" fill="1" layer="-1.00" shape="3058.082247,2394.395452 3076.193928,2386.631388 3067.087994,2365.386333 3048.976313,2373.150386 3058.082247,2394.395452"/>
    <poly id="375062971" type="building.yes" color="255,230,230" fill="1" layer="-1.00" shape="3031.554813,2409.274507 3041.273004,2405.105374 3032.155938,2383.835327 3022.426614,2388.004453 3031.554813,2409.274507"/>
    <poly id="375062972" type="building.yes" color="255,230,230" fill="1" layer="-1.00" shape="2888.987941,2266.313902 2898.728396,2261.520696 2895.533527,2255.042381 2885.804203,2259.835585 2888.987941,2266.313902"/>
    <poly id="375062973" type="building.mosque" color="255,230,230" fill="1" layer="-1.00" shape="2797.104833,2347.998366 2796.815402,2329.249842 2781.954250,2329.487007 2782.243681,2348.235531 2797.104833,2347.998366"/>
    <poly id="375062974" type="building.yes" color="255,230,230" fill="1" layer="-1.00" shape="2940.439809,2368.631757 2995.665409,2342.181577 2991.413004,2333.294129 2936.187405,2359.756774 2940.439809,2368.631757"/>
    <poly id="375062975" type="building.yes" color="255,230,230" fill="1" layer="-1.00" shape="2930.844069,2463.098870 2970.529468,2446.235046 2961.779756,2425.676436 2922.105489,2442.527754 2930.844069,2463.098870"/>
    <poly id="375062976" type="building.yes" color="255,230,230" fill="1" layer="-1.00" shape="3046.427097,2410.722470 3060.219581,2404.805796 3047.462368,2375.047711 3033.669883,2380.964372 3046.427097,2410.722470"/>
    <poly id="375062977" type="building.yes" color="255,230,230" fill="1" layer="-1.00" shape="2836.400613,2477.091740 2840.029629,2487.364838 2838.315309,2487.976481 2843.291290,2502.044271 2845.595603,2501.232907 2847.065020,2505.389586 2901.945529,2485.991762 2891.859984,2457.481754 2836.400613,2477.091740"/>
    <poly id="375062978" type="building.yes" color="255,230,230" fill="1" layer="-1.00" shape="2531.607847,2380.402664 2533.555939,2396.941866 2594.013554,2389.814404 2592.065463,2373.275210 2531.607847,2380.402664"/>
    <poly id="375062979" type="building.yes" color="255,230,230" fill="1" layer="-1.00" shape="2910.572790,2491.234415 2991.134705,2457.631544 2984.778363,2442.377964 2927.571276,2466.231974 2915.259341,2436.698444 2891.893379,2446.447248 2910.572790,2491.234415"/>
    <poly id="375062980" type="building.yes" color="255,230,230" fill="1" layer="-1.00" shape="2965.876313,2427.349085 2980.114076,2420.658492 2969.327217,2397.678329 2965.442167,2394.058427 2959.620158,2394.794890 2955.412281,2398.714371 2955.089454,2404.368911 2965.876313,2427.349085"/>
    <poly id="375062981" type="building.yes" color="255,230,230" fill="1" layer="-1.00" shape="2935.397036,2352.417129 2983.843279,2329.736654 2969.939474,2300.053622 2975.438657,2297.469778 2964.150861,2273.353925 2958.651678,2275.937765 2944.959381,2246.704208 2896.524270,2269.397032 2935.397036,2352.417129"/>
    <poly id="375064374" type="building.yes" color="255,230,230" fill="1" layer="-1.00" shape="2631.906709,2344.703018 2666.348959,2338.898713 2663.888798,2324.356756 2629.457680,2330.148572 2631.906709,2344.703018"/>
    <poly id="375064375" type="building.yes" color="255,230,230" fill="1" layer="-1.00" shape="2607.494344,2365.124203 2607.961886,2377.856253 2631.283320,2377.007449 2630.815778,2364.275400 2607.494344,2365.124203"/>
    <poly id="375064376" type="building.yes" color="255,230,230" fill="1" layer="-1.00" shape="2634.945731,2431.643049 2645.187124,2431.555671 2645.031277,2415.103805 2634.789883,2415.203665 2634.945731,2431.643049"/>
    <poly id="375064378" type="building.yes" color="255,230,230" fill="1" layer="-1.00" shape="3023.216983,2356.061986 3032.378577,2377.431851 3044.957679,2372.039452 3035.796085,2350.669596 3023.216983,2356.061986"/>
    <poly id="375064379" type="building.yes" color="255,230,230" fill="1" layer="-1.00" shape="2696.371826,2431.056373 2706.613219,2430.956514 2706.457372,2414.504648 2696.215979,2414.604508 2696.371826,2431.056373"/>
    <poly id="375064380" type="building.yes" color="255,230,230" fill="1" layer="-1.00" shape="2624.715470,2431.742908 2634.945731,2431.643049 2634.789883,2415.203665 2624.548490,2415.303524 2624.715470,2431.742908"/>
    <poly id="375064381" type="building.yes" color="255,230,230" fill="1" layer="-1.00" shape="2686.141565,2431.156233 2696.371826,2431.056373 2696.215979,2414.604508 2685.974585,2414.704367 2686.141565,2431.156233"/>
    <poly id="375064382" type="building.yes" color="255,230,230" fill="1" layer="-1.00" shape="2604.477586,2334.068036 2628.400145,2329.000195 2625.951116,2317.416566 2602.017425,2322.496885 2604.477586,2334.068036"/>
    <poly id="375064383" type="building.yes" color="255,230,230" fill="1" layer="-1.00" shape="2723.133031,2367.296140 2742.947901,2359.319890 2739.007191,2349.521216 2719.192321,2357.497461 2723.133031,2367.296140"/>
    <poly id="375064384" type="building.yes" color="255,230,230" fill="1" layer="-1.00" shape="2610.277332,2450.067164 2627.921471,2455.259873 2632.563494,2439.494515 2614.930486,2434.289329 2610.277332,2450.067164"/>
    <poly id="375064385" type="building.yes" color="255,230,230" fill="1" layer="-1.00" shape="2677.336193,2321.747943 2698.720667,2318.103095 2694.557318,2293.650184 2673.172844,2297.282543 2677.336193,2321.747943"/>
    <poly id="375064386" type="building.yes" color="255,230,230" fill="1" layer="-1.00" shape="2706.613219,2430.956514 2716.854612,2430.856654 2716.687633,2414.404789 2706.457372,2414.504648 2706.613219,2430.956514"/>
    <poly id="375064387" type="building.yes" color="255,230,230" fill="1" layer="-1.00" shape="2711.177318,2343.492227 2717.043855,2356.835894 2738.183427,2347.536518 2732.316889,2334.192859 2711.177318,2343.492227"/>
    <poly id="375064388" type="building.yes" color="255,230,230" fill="1" layer="-1.00" shape="2608.340372,2316.667624 2628.522596,2313.284907 2625.795269,2297.020414 2605.613045,2300.403128 2608.340372,2316.667624"/>
    <poly id="375064389" type="building.yes" color="255,230,230" fill="1" layer="-1.00" shape="2686.698162,2404.793313 2688.178711,2413.880526 2715.129160,2413.156545 2712.991826,2400.312121 2686.698162,2404.793313"/>
    <poly id="375064390" type="building.yes" color="255,230,230" fill="1" layer="-1.00" shape="2692.319796,2467.467740 2714.795202,2475.444051 2722.543038,2453.624669 2700.067633,2445.648370 2692.319796,2467.467740"/>
    <poly id="375064391" type="building.yes" color="255,230,230" fill="1" layer="-1.00" shape="2657.643775,2379.990744 2667.428758,2378.293137 2664.968597,2364.063199 2655.183614,2365.748323 2657.643775,2379.990744"/>
    <poly id="375064392" type="building.yes" color="255,230,230" fill="1" layer="-1.00" shape="2678.427124,2325.005839 2682.968959,2350.756972 2703.763440,2347.087152 2699.221605,2321.348508 2678.427124,2325.005839"/>
    <poly id="375064393" type="building.yes" color="255,230,230" fill="1" layer="-1.00" shape="2998.448396,2393.284517 3016.003480,2385.757619 3012.418992,2377.381921 2994.852776,2384.908815 2998.448396,2393.284517"/>
    <poly id="375064394" type="building.yes" color="255,230,230" fill="1" layer="-1.00" shape="2987.093808,2371.515191 2992.759970,2384.759026 3012.508048,2376.295952 3006.830754,2363.052125 2987.093808,2371.515191"/>
    <poly id="375064395" type="building.yes" color="255,230,230" fill="1" layer="-1.00" shape="2655.428517,2431.455812 2665.658778,2431.355952 2665.502931,2414.904086 2655.261538,2415.003946 2655.428517,2431.455812"/>
    <poly id="375064396" type="building.yes" color="255,230,230" fill="1" layer="-1.00" shape="3047.562555,2369.393183 3059.306762,2364.362777 3054.631343,2353.440685 3042.876005,2358.471087 3047.562555,2369.393183"/>
    <poly id="375064397" type="building.yes" color="255,230,230" fill="1" layer="-1.00" shape="2758.287727,2446.122704 2763.675590,2460.315277 2782.466320,2453.175300 2777.067325,2438.982734 2758.287727,2446.122704"/>
    <poly id="375064398" type="building.yes" color="255,230,230" fill="1" layer="-1.00" shape="2632.029160,2366.572161 2670.935322,2359.681879 2667.651397,2341.133058 2630.671062,2347.773683 2632.029160,2366.572161"/>
    <poly id="375064399" type="building.yes" color="255,230,230" fill="1" layer="-1.00" shape="3017.150070,2385.270805 3030.942555,2379.354142 3021.413607,2357.147954 3007.632254,2363.052125 3017.150070,2385.270805"/>
    <poly id="375064400" type="building.yes" color="255,230,230" fill="1" layer="-1.00" shape="2607.260573,2362.702618 2630.214652,2361.616650 2629.613527,2349.009439 2606.659448,2350.107888 2607.260573,2362.702618"/>
    <poly id="375064401" type="building.yes" color="255,230,230" fill="1" layer="-1.00" shape="2645.187124,2431.555671 2655.428517,2431.455812 2655.261538,2415.003946 2645.031277,2415.103805 2645.187124,2431.555671"/>
    <poly id="375064402" type="building.apartments" color="255,230,230" fill="1" layer="-1.00" shape="2727.942033,2439.856506 2784.291960,2420.333949 2772.937372,2388.765881 2723.255483,2407.164976 2727.942033,2439.856506"/>
    <poly id="375064403" type="building.yes" color="255,230,230" fill="1" layer="-1.00" shape="3007.543198,2419.247976 3027.102033,2410.859776 3020.144565,2394.607653 3000.574598,2402.995843 3007.543198,2419.247976"/>
    <poly id="375064404" type="building.yes" color="255,230,230" fill="1" layer="-1.00" shape="2709.496394,2379.815991 2707.804337,2369.879997 2681.510674,2374.361179 2683.202730,2384.297176 2709.496394,2379.815991"/>
    <poly id="375064405" type="building.yes" color="255,230,230" fill="1" layer="-1.00" shape="2675.900171,2431.256092 2686.141565,2431.156233 2685.974585,2414.704367 2675.744324,2414.804227 2675.900171,2431.256092"/>
    <poly id="375064406" type="building.yes" color="255,230,230" fill="1" layer="-1.00" shape="2606.648316,2348.085742 2629.858430,2344.703018 2628.043922,2332.283057 2604.844940,2335.665779 2606.648316,2348.085742"/>
    <poly id="375064407" type="building.yes" color="255,230,230" fill="1" layer="-1.00" shape="2711.188450,2389.751992 2709.496394,2379.815991 2683.202730,2384.297176 2684.894786,2394.220698 2711.188450,2389.751992"/>
    <poly id="375064408" type="building.yes" color="255,230,230" fill="1" layer="-1.00" shape="2665.658778,2431.355952 2675.900171,2431.256092 2675.744324,2414.804227 2665.502931,2414.904086 2665.658778,2431.355952"/>
    <poly id="375064409" type="building.yes" color="255,230,230" fill="1" layer="-1.00" shape="2722.654358,2375.522043 2725.170178,2381.551046 2751.753272,2370.429222 2749.237452,2364.400224 2722.654358,2375.522043"/>
    <poly id="375064410" type="building.yes" color="255,230,230" fill="1" layer="-1.00" shape="2604.232683,2431.942628 2614.474076,2431.842768 2614.318229,2415.403384 2604.076836,2415.503244 2604.232683,2431.942628"/>
    <poly id="375064411" type="building.yes" color="255,230,230" fill="1" layer="-1.00" shape="2706.112281,2359.956492 2704.409093,2350.020512 2678.070902,2354.501688 2679.818618,2364.425189 2706.112281,2359.956492"/>
    <poly id="375064413" type="building.yes" color="255,230,230" fill="1" layer="-1.00" shape="2614.474076,2431.842768 2624.715470,2431.742908 2624.548490,2415.303524 2614.318229,2415.403384 2614.474076,2431.842768"/>
    <poly id="375064414" type="building.yes" color="255,230,230" fill="1" layer="-1.00" shape="2708.394331,2337.937570 2727.730526,2328.875371 2721.452107,2315.481801 2702.115912,2324.543991 2708.394331,2337.937570"/>
    <poly id="375064415" type="building.yes" color="255,230,230" fill="1" layer="-1.00" shape="2630.337104,2312.685754 2633.064431,2327.302593 2659.647526,2322.347096 2656.920198,2307.730262 2630.337104,2312.685754"/>
    <poly id="375064416" type="building.yes" color="255,230,230" fill="1" layer="-1.00" shape="2712.991826,2400.312121 2711.188450,2389.751992 2684.894786,2394.220698 2686.698162,2404.793313 2712.991826,2400.312121"/>
    <poly id="375064417" type="building.yes" color="255,230,230" fill="1" layer="-1.00" shape="2660.304311,2455.746690 2681.443882,2462.512194 2687.677774,2443.052017 2666.527070,2436.286523 2660.304311,2455.746690"/>
    <poly id="375064418" type="building.yes" color="255,230,230" fill="1" layer="-1.00" shape="2707.804337,2369.879997 2706.112281,2359.956492 2679.818618,2364.425189 2681.510674,2374.361179 2707.804337,2369.879997"/>